.SUBCKT DUOPAMPTL082 1 2 3 4 5 6 7 8
XUA 3 2 8 4 1 TL082
XUB 5 6 8 4 7 TL082
.ENDS

.include TL082.lib
